Circuit: * C:\Users\wlu\Dropbox\_Junior Year\_Second Semester\Circuits\final\final.asc

Direct Newton iteration for .op point succeeded.

Date: Thu Apr 27 14:44:20 2017
Total elapsed time: 0.331 seconds.

tnom = 27
temp = 27
method = modified trap
totiter = 2124
traniter = 2082
tranpoints = 1042
accept = 1042
rejected = 0
matrix size = 57
fillins = 6
solver = Normal
Thread vector: 38.2/16.7[2] 4.6/26.0[1] 0.9/208.3[1] 0.4/401.2[1]  2592/500
Matrix Compiler1: 2.30 KB object code size  1.1/0.6/[0.2]
Matrix Compiler2: off  [0.7]/1.3/1.2

